Circuit: * C:\Users\Florian\Documents\R_D\Projet_info-electro-meca\portable_speaker\PCB\sim\circuit_sim.asc

Direct Newton iteration for .op point succeeded.

Date: Sat Jan 20 15:43:15 2024
Total elapsed time: 0.045 seconds.

tnom = 27
temp = 27
method = modified trap
totiter = 2106
traniter = 2088
tranpoints = 1045
accept = 1045
rejected = 0
matrix size = 29
fillins = 32
solver = Normal
Matrix Compiler1: 2.77 KB object code size  0.6/0.3/[0.2]
Matrix Compiler2: off  [0.3]/0.4/0.3

