LTspice 24.0.9 for Windows
Circuit: * C:\Users\etudiant.ENIB-ETU-3.000\Documents\portable_speaker\PCB\sim\sim_switch_dc_dc.asc
Start Time: Sun May  5 09:09:59 2024
solver = Normal
Maximum thread count: 4
tnom = 27
temp = 27
method = modified trap
Direct Newton iteration for .op point succeeded.
Total elapsed time: 0.074 seconds.

